  Page 1                                    Tue Oct 15 12:45:41 2019

  ******************************************************************
  *                           E P A N E T                          *
  *                   Hydraulic and Water Quality                  *
  *                   Analysis for Pipe Networks                   *
  *                         Version 2.00.12                        *
  ******************************************************************
  
  Analysis begun Tue Oct 15 12:45:41 2019

  Analysis ended Tue Oct 15 12:45:41 2019
