  Page 1                                    Sun Oct 20 16:56:57 2019

  ******************************************************************
  *                           E P A N E T                          *
  *                   Hydraulic and Water Quality                  *
  *                   Analysis for Pipe Networks                   *
  *                         Version 2.00.12                        *
  ******************************************************************
  
  Analysis begun Sun Oct 20 16:56:57 2019

  Analysis ended Sun Oct 20 16:56:57 2019
